Program Version,EnergyPlus, Version 8.9.0-40101eaafd, YMD=2018.12.16 20:33,
Var Type (reported time step),Var Report Type,Variable Name [Units]
Zone,Meter,EnergyTransfer:Facility [J]
Zone,Meter,EnergyTransfer:Building [J]
Zone,Meter,EnergyTransfer:Zone:ZONE ONE [J]
Zone,Meter,Heating:EnergyTransfer [J]
Zone,Meter,Heating:EnergyTransfer:Zone:ZONE ONE [J]
Zone,Meter,Cooling:EnergyTransfer [J]
Zone,Meter,Cooling:EnergyTransfer:Zone:ZONE ONE [J]
Zone,Meter,EnergyTransfer:HVAC [J]
Zone,Meter,Baseboard:EnergyTransfer [J]
Zone,Meter,PlantLoopHeatingDemand:Facility [J]
Zone,Meter,PlantLoopHeatingDemand:HVAC [J]
Zone,Meter,Baseboard:PlantLoopHeatingDemand [J]
Zone,Meter,DistrictHeating:Facility [J]
Zone,Meter,DistrictHeating:Plant [J]
Zone,Meter,Heating:DistrictHeating [J]
Zone,Meter,Electricity:Facility [J]
Zone,Meter,Electricity:Plant [J]
Zone,Meter,Pumps:Electricity [J]
Zone,Meter,Carbon Equivalent:Facility [kg]
Zone,Meter,CarbonEquivalentEmissions:Carbon Equivalent [kg]
