Program Version,EnergyPlus, Version 8.9.0-40101eaafd, YMD=2019.01.24 12:22,
Var Type (reported time step),Var Report Type,Variable Name [Units]
Zone,Meter,Electricity:Facility [J]
Zone,Meter,Electricity:Building [J]
Zone,Meter,Electricity:Zone:ZONE ONE [J]
Zone,Meter,InteriorLights:Electricity [J]
Zone,Meter,InteriorLights:Electricity:Zone:ZONE ONE [J]
Zone,Meter,General:InteriorLights:Electricity [J]
Zone,Meter,InteriorEquipment:Electricity [J]
Zone,Meter,InteriorEquipment:Electricity:Zone:ZONE ONE [J]
Zone,Meter,General:InteriorEquipment:Electricity [J]
Zone,Meter,DistrictHeating:Facility [J]
Zone,Meter,DistrictHeating:Building [J]
Zone,Meter,DistrictHeating:Zone:ZONE ONE [J]
Zone,Meter,InteriorEquipment:DistrictHeating [J]
Zone,Meter,InteriorEquipment:DistrictHeating:Zone:ZONE ONE [J]
Zone,Meter,General:InteriorEquipment:DistrictHeating [J]
Zone,Meter,Fans:Electricity [J]
Zone,Meter,Fans:Electricity:Zone:ZONE ONE [J]
Zone,Meter,Ventilation (simple):Fans:Electricity [J]
Zone,Meter,EnergyTransfer:Facility [J]
Zone,Meter,EnergyTransfer:Building [J]
Zone,Meter,EnergyTransfer:Zone:ZONE ONE [J]
Zone,Meter,Heating:EnergyTransfer [J]
Zone,Meter,Heating:EnergyTransfer:Zone:ZONE ONE [J]
Zone,Meter,Cooling:EnergyTransfer [J]
Zone,Meter,Cooling:EnergyTransfer:Zone:ZONE ONE [J]
Zone,Meter,EnergyTransfer:HVAC [J]
Zone,Meter,HeatRecoveryForHeating:EnergyTransfer [J]
Zone,Meter,HeatRecoveryForCooling:EnergyTransfer [J]
Zone,Meter,Electricity:HVAC [J]
Zone,Meter,HeatRecovery:Electricity [J]
Zone,Meter,General:Fans:Electricity [J]
Zone,Meter,Baseboard:EnergyTransfer [J]
Zone,Meter,PlantLoopHeatingDemand:Facility [J]
Zone,Meter,PlantLoopHeatingDemand:HVAC [J]
Zone,Meter,Baseboard:PlantLoopHeatingDemand [J]
Zone,Meter,ElectricityPurchased:Facility [J]
Zone,Meter,ElectricityPurchased:Plant [J]
Zone,Meter,Cogeneration:ElectricityPurchased [J]
Zone,Meter,ElectricitySurplusSold:Facility [J]
Zone,Meter,ElectricitySurplusSold:Plant [J]
Zone,Meter,Cogeneration:ElectricitySurplusSold [J]
Zone,Meter,ElectricityNet:Facility [J]
Zone,Meter,ElectricityNet:Plant [J]
Zone,Meter,Cogeneration:ElectricityNet [J]
Zone,Meter,DistrictHeating:Plant [J]
Zone,Meter,Heating:DistrictHeating [J]
Zone,Meter,Electricity:Plant [J]
Zone,Meter,Pumps:Electricity [J]
Zone,Meter,Carbon Equivalent:Facility [kg]
Zone,Meter,CarbonEquivalentEmissions:Carbon Equivalent [kg]
