Program Version,EnergyPlus, Version 8.9.0-40101eaafd, YMD=2018.12.24 12:21,
   ** Warning ** Weather file location will be used rather than entered (IDF) Location object.
   **   ~~~   ** ..Location object=STOCKHOLM (ARLANDA)
   **   ~~~   ** ..Weather File Location=STOCKHOLM_ ARLANDA - SWE IWEC Data WMO#=024600
   **   ~~~   ** ..due to location differences, Latitude difference=[59.65] degrees, Longitude difference=[17.95] degrees.
   **   ~~~   ** ..Time Zone difference=[1.0] hour(s), Elevation difference=[6100.00] percent, [61.00] meters.
   ************* Testing Individual Branch Integrity
   ************* All Branches passed integrity testing
   ************* Testing Individual Supply Air Path Integrity
   ************* All Supply Air Paths passed integrity testing
   ************* Testing Individual Return Air Path Integrity
   ************* All Return Air Paths passed integrity testing
   ************* No node connection errors were found.
   ************* Beginning Simulation
   ************* Simulation Error Summary *************
   ** Warning ** The following Report Variables were requested but not generated -- check.rdd file
   **   ~~~   ** Either the IDF did not contain these elements, the variable name is misspelled,
   **   ~~~   ** or the requested variable is an advanced output which requires Output : Diagnostics, DisplayAdvancedReportVariables;
   ************* Key=*, VarName=LIGHTS ELECTRIC ENERGY, Frequency=Hourly
   ************* There are 1 unused schedules in input.
   ************* Use Output:Diagnostics,DisplayUnusedSchedules; to see them.
   ************* EnergyPlus Warmup Error Summary. During Warmup: 0 Warning; 0 Severe Errors.
   ************* EnergyPlus Sizing Error Summary. During Sizing: 0 Warning; 0 Severe Errors.
   ************* EnergyPlus Completed Successfully-- 2 Warning; 0 Severe Errors; Elapsed Time=00hr 00min  0.90sec
