Program Version,EnergyPlus, Version 8.9.0-40101eaafd, YMD=2019.01.10 17:48
! <Version>, Version ID
 Version, 8.9
! <Timesteps per Hour>, #TimeSteps, Minutes per TimeStep {minutes}
 Timesteps per Hour,  1, 60
! <System Convergence Limits>, Minimum System TimeStep {minutes}, Max HVAC Iterations, Minimum Plant Iterations, Maximum Plant Iterations
 System Convergence Limits, 1, 20, 2, 8
! <Simulation Control>, Do Zone Sizing, Do System Sizing, Do Plant Sizing, Do Design Days, Do Weather Simulation, Do HVAC Sizing Simulation
 Simulation Control, No, No, No, No, Yes, No
! <Output Reporting Tolerances>, Tolerance for Time Heating Setpoint Not Met, Tolerance for Zone Cooling Setpoint Not Met Time
 Output Reporting Tolerances, 0.200, 0.200, 
! <Site:GroundTemperature:BuildingSurface>,Jan{C},Feb{C},Mar{C},Apr{C},May{C},Jun{C},Jul{C},Aug{C},Sep{C},Oct{C},Nov{C},Dec{C}
 Site:GroundTemperature:BuildingSurface,  18.30,  18.20,  18.30,  18.40,  20.10,  22.00,  22.30,  22.50,  22.50,  20.70,  18.90,  18.50
! <Site:GroundTemperature:FCfactorMethod>,Jan{C},Feb{C},Mar{C},Apr{C},May{C},Jun{C},Jul{C},Aug{C},Sep{C},Oct{C},Nov{C},Dec{C}
 Site:GroundTemperature:FCfactorMethod,  -2.00,  -2.83,  -1.36,   0.95,   6.98,  11.64,  14.78,  15.74,  14.11,  10.50,   5.66,   1.18
! <Site:GroundTemperature:Shallow>,Jan{C},Feb{C},Mar{C},Apr{C},May{C},Jun{C},Jul{C},Aug{C},Sep{C},Oct{C},Nov{C},Dec{C}
 Site:GroundTemperature:Shallow,  13.00,  13.00,  13.00,  13.00,  13.00,  13.00,  13.00,  13.00,  13.00,  13.00,  13.00,  13.00
! <Site:GroundTemperature:Deep>,Jan{C},Feb{C},Mar{C},Apr{C},May{C},Jun{C},Jul{C},Aug{C},Sep{C},Oct{C},Nov{C},Dec{C}
 Site:GroundTemperature:Deep,  16.00,  16.00,  16.00,  16.00,  16.00,  16.00,  16.00,  16.00,  16.00,  16.00,  16.00,  16.00
! <Site:GroundReflectance>,Jan{dimensionless},Feb{dimensionless},Mar{dimensionless},Apr{dimensionless},May{dimensionless},Jun{dimensionless},Jul{dimensionless},Aug{dimensionless},Sep{dimensionless},Oct{dimensionless},Nov{dimensionless},Dec{dimensionless}
 Site:GroundReflectance,  0.20,  0.20,  0.20,  0.20,  0.20,  0.20,  0.20,  0.20,  0.20,  0.20,  0.20,  0.20
! <Site:GroundReflectance:SnowModifier>, Normal, Daylighting {dimensionless}
 Site:GroundReflectance:SnowModifier,   1.000,   1.000
! <Site:GroundReflectance:Snow>,Jan{dimensionless},Feb{dimensionless},Mar{dimensionless},Apr{dimensionless},May{dimensionless},Jun{dimensionless},Jul{dimensionless},Aug{dimensionless},Sep{dimensionless},Oct{dimensionless},Nov{dimensionless},Dec{dimensionless}
 Site:GroundReflectance:Snow,  0.20,  0.20,  0.20,  0.20,  0.20,  0.20,  0.20,  0.20,  0.20,  0.20,  0.20,  0.20
! <Site:GroundReflectance:Snow:Daylighting>,Jan{dimensionless},Feb{dimensionless},Mar{dimensionless},Apr{dimensionless},May{dimensionless},Jun{dimensionless},Jul{dimensionless},Aug{dimensionless},Sep{dimensionless},Oct{dimensionless},Nov{dimensionless},Dec{dimensionless}
 Site:GroundReflectance:Snow:Daylighting,  0.20,  0.20,  0.20,  0.20,  0.20,  0.20,  0.20,  0.20,  0.20,  0.20,  0.20,  0.20
! <Environment:Weather Station>,Wind Sensor Height Above Ground {m},Wind Speed Profile Exponent {},Wind Speed Profile Boundary Layer Thickness {m},Air Temperature Sensor Height Above Ground {m},Wind Speed Modifier Coefficient-Internal,Temperature Modifier Coefficient-Internal
Environment:Weather Station,10.000,0.140,270.000,1.500,1.586,9.750E-003
! <Site:Location>, Location Name, Latitude {N+/S- Deg}, Longitude {E+/W- Deg},  Time Zone Number {GMT+/-}, Elevation {m},  Standard Pressure at Elevation {Pa}, Standard RhoAir at Elevation
Site:Location,STOCKHOLM_ ARLANDA - SWE IWEC Data WMO#=024600,59.65,17.95,1.00,61.00,100594,1.1956
! <Building Information>, Building Name,North Axis {deg},Terrain,  Loads Convergence Tolerance Value,Temperature Convergence Tolerance Value,  Solar Distribution,Maximum Number of Warmup Days,Minimum Number of Warmup Days
 Building Information,Residential_DH,0.000,Urban,4.00000E-002,1.00000E-003,FullInteriorAndExterior,25,6
! <Inside Convection Algorithm>, Algorithm {Simple | TARP | CeilingDiffuser | AdaptiveConvectionAlgorithm}
Inside Convection Algorithm,TARP
! <Outside Convection Algorithm>, Algorithm {SimpleCombined | TARP | MoWitt | DOE-2 | AdaptiveConvectionAlgorithm}
Outside Convection Algorithm,TARP
! <Sky Radiance Distribution>, Value {Anisotropic}
Sky Radiance Distribution,Anisotropic
! <Zone Air Solution Algorithm>, Value {ThirdOrderBackwardDifference | AnalyticalSolution | EulerMethod}
 Zone Air Solution Algorithm, ThirdOrderBackwardDifference
! <Zone Air Carbon Dioxide Balance Simulation>, Simulation {Yes/No}, Carbon Dioxide Concentration
 Zone Air Carbon Dioxide Balance Simulation, No,N/A
! <Zone Air Generic Contaminant Balance Simulation>, Simulation {Yes/No}, Generic Contaminant Concentration
 Zone Air Generic Contaminant Balance Simulation, No,N/A
! <Zone Air Mass Flow Balance Simulation>, Enforce Mass Balance, Adjust Zone Mixing, Adjust Zone Infiltration {AddInfiltration | AdjustInfiltration | None}, Infiltration Zones {MixingSourceZonesOnly | AllZones}
 Zone Air Mass Flow Balance Simulation, No,N/A,N/A,N/A
! <HVACSystemRootFindingAlgorithm>, Value {RegulaFalsi | Bisection | BisectionThenRegulaFalsi | RegulaFalsiThenBisection}
 HVACSystemRootFindingAlgorithm, RegulaFalsi
! <Environment:Site Atmospheric Variation>,Wind Speed Profile Exponent {},Wind Speed Profile Boundary Layer Thickness {m},Air Temperature Gradient Coefficient {K/m}
Environment:Site Atmospheric Variation,0.220,370.000,6.500000E-003
! <Surface Geometry>,Starting Corner,Vertex Input Direction,Coordinate System,Daylight Reference Point Coordinate System,Rectangular (Simple) Surface Coordinate System
 Surface Geometry,UpperLeftCorner,Counterclockwise,WorldCoordinateSystem,RelativeCoordinateSystem,RelativeToZoneOrigin
! <Surface Heat Transfer Algorithm>, Value {CTF - ConductionTransferFunction | EMPD - MoisturePenetrationDepthConductionTransferFunction | CondFD - ConductionFiniteDifference | HAMT - CombinedHeatAndMoistureFiniteElement} - Description,Inside Surface Max Temperature Limit{C}, Surface Convection Coefficient Lower Limit {W/m2-K}, Surface Convection Coefficient Upper Limit {W/m2-K}
Surface Heat Transfer Algorithm, CTF - ConductionTransferFunction,200,0.10,1000.0
! <Shading Summary>, Number of Fixed Detached Shades, Number of Building Detached Shades, Number of Attached Shades
 Shading Summary,0,0,0
! <Zone Summary>, Number of Zones, Number of Zone Surfaces, Number of SubSurfaces
 Zone Summary,1,9,2
! <Zone Information>,Zone Name,North Axis {deg},Origin X-Coordinate {m},Origin Y-Coordinate {m},Origin Z-Coordinate {m},Centroid X-Coordinate {m},Centroid Y-Coordinate {m},Centroid Z-Coordinate {m},Type,Zone Multiplier,Zone List Multiplier,Minimum X {m},Maximum X {m},Minimum Y {m},Maximum Y {m},Minimum Z {m},Maximum Z {m},Ceiling Height {m},Volume {m3},Zone Inside Convection Algorithm {Simple-Detailed-CeilingDiffuser-TrombeWall},Zone Outside Convection Algorithm {Simple-Detailed-Tarp-MoWitt-DOE-2-BLAST}, Floor Area {m2},Exterior Gross Wall Area {m2},Exterior Net Wall Area {m2},Exterior Window Area {m2}, Number of Surfaces, Number of SubSurfaces, Number of Shading SubSurfaces,  Part of Total Building Area
 Zone Information, ZONE ONE,0.0,0.00,0.00,0.00,4.00,3.00,1.35,1,1,1,0.00,8.00,0.00,6.00,0.00,2.70,2.70,129.60,TARP,TARP,48.00,37.80,25.80,12.00,6,2,0,Yes
! <Zone Internal Gains Nominal>,Zone Name, Floor Area {m2},# Occupants,Area per Occupant {m2/person},Occupant per Area {person/m2},Interior Lighting {W/m2},Electric Load {W/m2},Gas Load {W/m2},Other Load {W/m2},Hot Water Eq {W/m2},Steam Equipment {W/m2},Sum Loads per Area {W/m2},Outdoor Controlled Baseboard Heat
 Zone Internal Gains Nominal, ZONE ONE,48.00,4.0,12.000,8.333E-002,2.083,2.083,0.000,0.000,4.167,0.000,8.333,No
! <People Internal Gains Nominal>,Name,Schedule Name,Zone Name,Zone Floor Area {m2},# Zone Occupants,Number of People {},People/Floor Area {person/m2},Floor Area per person {m2/person},Fraction Radiant,Fraction Convected,Sensible Fraction Calculation,Activity level,ASHRAE 55 Warnings,Carbon Dioxide Generation Rate,Nominal Minimum Number of People,Nominal Maximum Number of People
 People Internal Gains Nominal, FAMILY,MULTIFAMILY ONEZONE OCCUPANCY,ZONE ONE,48.00,4.0,4.0,8.333E-002,12.000,0.300,0.700,0.100,MULTIFAMILY ACTIVITY LEVEL,No,3.8200E-008,1,3
! <Lights Internal Gains Nominal>,Name,Schedule Name,Zone Name,Zone Floor Area {m2},# Zone Occupants,Lighting Level {W},Lights/Floor Area {W/m2},Lights per person {W/person},Fraction Return Air,Fraction Radiant,Fraction Short Wave,Fraction Convected,Fraction Replaceable,End-Use Category,Nominal Minimum Lighting Level {W},Nominal Maximum Lighting Level {W}
 Lights Internal Gains Nominal, FAMILIY LIGHTS,MULTIFAMILY ONEZONE LIGHTING,ZONE ONE,48.00,4.0,100.000,2.083,25.000,0.000,0.000,0.000,1.000,1.000,General,0.000,95.000
! <ElectricEquipment Internal Gains Nominal>,Name,Schedule Name,Zone Name,Zone Floor Area {m2},# Zone Occupants,Equipment Level {W},Equipment/Floor Area {W/m2},Equipment per person {W/person},Fraction Latent,Fraction Radiant,Fraction Lost,Fraction Convected,End-Use SubCategory,Nominal Minimum Equipment Level {W},Nominal Maximum Equipment Level {W}
 ElectricEquipment Internal Gains Nominal, FAMILY EQUIPMENT,MULTIFAMILY ONEZONE EQUIPMENT,ZONE ONE,48.00,4.0,100.000,2.083,25.000,0.000,0.000,0.000,1.000,General,22.000,97.000
! <HotWaterEquipment Internal Gains Nominal>,Name,Schedule Name,Zone Name,Zone Floor Area {m2},# Zone Occupants,Equipment Level {W},Equipment/Floor Area {W/m2},Equipment per person {W/person},Fraction Latent,Fraction Radiant,Fraction Lost,Fraction Convected,End-Use SubCategory,Nominal Minimum Equipment Level {W},Nominal Maximum Equipment Level {W}
 HotWaterEquipment Internal Gains Nominal, DHW,MULTIFAMILY SWH,ZONE ONE,48.00,4.0,200.000,4.167,50.000,0.000,0.000,0.000,1.000,General,12.000,100.000
! <Construction CTF>,Construction Name,Index,#Layers,#CTFs,Time Step {hours},ThermalConductance {w/m2-K},OuterThermalAbsorptance,InnerThermalAbsorptance,OuterSolarAbsorptance,InnerSolarAbsorptance,Roughness
! <Material CTF Summary>,Material Name,Thickness {m},Conductivity {w/m-K},Density {kg/m3},Specific Heat {J/kg-K},ThermalResistance {m2-K/w}
! <Material:Air>,Material Name,ThermalResistance {m2-K/w}
! <CTF>,Time,Outside,Cross,Inside,Flux (except final one)
 Construction CTF,SKG INTRA APT WALLS,   1,   1,   5,   1.000,      8.500    ,   0.900,   0.900,   0.700,   0.700,Smooth
 Material CTF Summary,BETONG INTRA LGH,  0.2000,         1.700,   2000.000,      920.000,  0.1176    
 CTF,   5,     -0.11612261E-07,      0.48234811E-08,     -0.11612261E-07,      0.54061807E-11
 CTF,   4,      0.21074506E-03,      0.89544937E-04,      0.21074506E-03,     -0.24903802E-06
 CTF,   3,     -0.14048074    ,      0.41609811E-01,     -0.14048074    ,      0.51464232E-03
 CTF,   2,       5.8464990    ,       1.0747600    ,       5.8464990    ,     -0.52100608E-01
 CTF,   1,      -30.385579    ,       2.4556045    ,      -30.385579    ,      0.58508310    
 CTF,   0,       28.644626    ,      0.39321258    ,       28.644626    
 Construction CTF,SKG YTTERVAGG,   2,   3,   6,   1.000,     0.1111    ,   0.900,   0.900,   0.700,   0.700,Rough
 Material CTF Summary,LATTKLINKERBETONG,  0.0600,         0.140,    500.000,      500.000,  0.4286    
 Material CTF Summary,INSOLERING,  0.3400,         0.040,     30.000,      120.000,   8.500    
 Material CTF Summary,BETONG,  0.1200,         1.700,   2000.000,      920.000,  0.7059E-01
 CTF,   6,      0.13692189E-08,      0.85173814E-10,      0.43506338E-08,     -0.53025958E-13
 CTF,   5,     -0.35965274E-04,      0.55717264E-06,     -0.12004397E-03,      0.34058174E-08
 CTF,   4,      0.51508573E-02,      0.17623735E-03,      0.51741448E-01,     -0.58486629E-04
 CTF,   3,     -0.20293352    ,      0.50781792E-02,      -1.9827267    ,      0.71380967E-02
 CTF,   2,       2.3536255    ,      0.19004044E-01,       16.846527    ,     -0.19088049    
 CTF,   1,      -5.3999676    ,      0.89382394E-02,      -46.317472    ,      0.88348037    
 CTF,   0,       3.2775328    ,      0.17480451E-03,       31.435422    
 Construction CTF,SKG GOLV,   3,   1,   5,   1.000,      6.800    ,   0.900,   0.900,   0.700,   0.700,VeryRough
 Material CTF Summary,BETONG GOLV,  0.2500,         1.700,   2000.000,      920.000,  0.1471    
 CTF,   5,     -0.10384773E-04,      0.65204532E-06,     -0.10384773E-04,      0.61524763E-07
 CTF,   4,      0.88876339E-02,      0.10124678E-02,      0.88876339E-02,     -0.67194323E-04
 CTF,   3,     -0.84053034    ,      0.86159109E-01,     -0.84053034    ,      0.92061827E-02
 CTF,   2,       11.558611    ,      0.78248378    ,       11.558611    ,     -0.19287345    
 CTF,   1,      -35.405364    ,      0.90979146    ,      -35.405364    ,      0.90964097    
 CTF,   0,       26.542242    ,      0.84387816E-01,       26.542242    
 Construction CTF,SKG TAK,   4,   2,   8,   1.000,     0.9855E-01,   0.900,   0.900,   0.700,   0.700,VeryRough
 Material CTF Summary,BETONG GOLV,  0.2500,         1.700,   2000.000,      920.000,  0.1471    
 Material CTF Summary,ISOLERING TAK,  0.4000,         0.040,     30.000,      120.000,   10.00    
 CTF,   8,      0.23531857E-11,      0.29642092E-14,      0.12799906E-11,     -0.14004681E-13
 CTF,   7,     -0.11520789E-07,      0.28943822E-10,     -0.28074819E-08,      0.71653121E-10
 CTF,   6,      0.15790756E-04,      0.40171557E-07,      0.14214011E-05,     -0.10763423E-06
 CTF,   5,     -0.54518824E-02,      0.80919129E-05,     -0.15791188E-03,      0.45996999E-04
 CTF,   4,      0.33105735    ,      0.28879663E-03,      0.57931162E-02,     -0.38582473E-02
 CTF,   3,      -5.0933149    ,      0.20896503E-02,     -0.68336353E-01,      0.78605654E-01
 CTF,   2,       27.728290    ,      0.30998013E-02,      0.27084719    ,     -0.57841969    
 CTF,   1,      -49.496565    ,      0.74048108E-03,     -0.41737492    ,       1.4403551    
 CTF,   0,       26.542204    ,      0.85693550E-05,      0.21546289    
 Construction CTF,SKG INTRA ROOMS WALLS,   5,   3,   3,   1.000,     0.3972    ,   0.900,   0.900,   0.700,   0.700,Smooth
 Material CTF Summary,PLASTER,  0.0130,         0.250,     53.000,      720.000,  0.5200E-01
 Material CTF Summary,WOOL,  0.0700,         0.029,     30.000,     1300.000,   2.414    
 Material CTF Summary,PLASTER,  0.0130,         0.250,     53.000,      720.000,  0.5200E-01
 CTF,   3,     -0.15054048E-10,      0.81063950E-12,     -0.15054048E-10,      0.34050022E-15
 CTF,   2,      0.17510718E-02,      0.21318209E-03,      0.17510718E-02,     -0.79835230E-10
 CTF,   1,     -0.38939652    ,      0.12665823    ,     -0.38939652    ,      0.77136456E-02
 CTF,   0,      0.78175502    ,      0.26723816    ,      0.78175502    
! <WindowConstruction>,Construction Name,Index,#Layers,Roughness,Conductance {W/m2-K},SHGC,Solar Transmittance at Normal Incidence,Visible Transmittance at Normal Incidence
! <WindowMaterial:Glazing>, Material Name, Optical Data Type, Spectral Data Set Name, Thickness {m}, Solar Transmittance,Front Solar Reflectance, Back Solar Reflectance, Visible Transmittance, Front Visible Reflectance,Back Visible Reflectance,Infrared Transmittance, Front Thermal Emissivity, Back Thermal Emissivity,Conductivity {W/m-K},Dirt Factor,Solar Diffusing
! <WindowMaterial:Gas>,Material Name,GasType,Thickness {m}
 WindowConstruction,DOUBLE PANE WINDOW,6,3,VerySmooth,3.610,0.697,0.604,0.781
 WindowMaterial:Glazing,CLEAR 6MM,SpectralAverage,,6.00000E-003,0.77500,7.10000E-002,7.10000E-002,0.88100,8.00000E-002,8.00000E-002,0.00000,0.84000,0.84000,0.90000,1.00000,No
 WindowMaterial:Gas,AIR 3MM,Air,3.200E-003
 WindowMaterial:Glazing,CLEAR 6MM,SpectralAverage,,6.00000E-003,0.77500,7.10000E-002,7.10000E-002,0.88100,8.00000E-002,8.00000E-002,0.00000,0.84000,0.84000,0.90000,1.00000,No
! <Shadowing/Sun Position Calculations Annual Simulations>, Calculation Method, Value {days}, Allowable Number Figures in Shadow Overlap {}, Polygon Clipping Algorithm, Sky Diffuse Modeling Algorithm, External Shading Calculation Method, Output External Shading Calculation Results, Disable Self-Shading Within Shading Zone Groups, Disable Self-Shading From Shading Zone Groups to Other Zones
Shadowing/Sun Position Calculations Annual Simulations,AverageOverDaysInFrequency,20,15000,SutherlandHodgman,SimpleSkyDiffuseModeling,InternalCalculation,No,No,No
! <Surface Convection Parameters>, Surface Name, Outside Model Assignment, Outside Area [m2], Outside Perimeter [m], Outside Height [m], Inside Model Assignment, Inside Height [m], Inside Perimeter Envelope [m], Inside Hydraulic Diameter [m], Window Wall Ratio, Window Location, Near Radiant {Yes/No}, Has Active HVAC {Yes/No}
Surface Convection Parameters,ZONE SURFACE NORTH,0,21.60,25.40,2.70,0,2.70,14.00,6.86,0.32,3,No,No
Surface Convection Parameters,NORTH WINDOW,0,21.60,25.40,2.70,0,2.70,14.00,6.86,0.32,2,No,No
Surface Convection Parameters,ZONE SURFACE EAST,0,16.20,25.40,2.70,0,2.70,14.00,6.86,0.32,3,No,No
Surface Convection Parameters,EAST WINDOW,0,16.20,25.40,2.70,0,2.70,14.00,6.86,0.32,2,No,No
Surface Convection Parameters,ZONE SURFACE SOUTH,0,0.00,0.00,0.00,0,2.70,14.00,6.86,0.32,0,No,No
Surface Convection Parameters,ZONE SURFACE WEST,0,0.00,0.00,0.00,0,2.70,14.00,6.86,0.32,0,No,No
Surface Convection Parameters,ZONE SURFACE FLOOR,0,0.00,0.00,0.00,0,2.70,14.00,6.86,0.32,0,No,No
Surface Convection Parameters,ZONE SURFACE ROOF,0,48.00,30.00,0.00,0,2.70,14.00,6.86,0.32,0,No,No
Surface Convection Parameters,INDOOR WALLS,0,0.00,0.00,0.00,0,2.70,14.00,6.86,0.32,0,No,No
! <ZoneVentilation Airflow Stats Nominal>,Name,Schedule Name,Zone Name, Zone Floor Area {m2}, # Zone Occupants,Design Volume Flow Rate {m3/s},Volume Flow Rate/Floor Area {m3/s/m2},Volume Flow Rate/person Area {m3/s/person},ACH - Air Changes per Hour,Fan Type {Exhaust;Intake;Natural},Fan Pressure Rise {Pa},Fan Efficiency {},Equation A - Constant Term Coefficient {},Equation B - Temperature Term Coefficient {1/C},Equation C - Velocity Term Coefficient {s/m}, Equation D - Velocity Squared Term Coefficient {s2/m2},Minimum Indoor Temperature{C}/Schedule,Maximum Indoor Temperature{C}/Schedule,Delta Temperature{C}/Schedule,Minimum Outdoor Temperature{C}/Schedule,Maximum Outdoor Temperature{C}/Schedule,Maximum WindSpeed{m/s}
 ZoneVentilation Airflow Stats Nominal, FAMILY VENTILATION,DAYTIME VENTILATION,ZONE ONE,48.00,4.0,2.000E-002,4.167E-004,5.000E-003,0.556,Natural,0.000,1.0,1.000,0.000,0.000,0.000,-100.00,100.00,-100.00,-100.00,100.00,40.00
! <AirFlow Model>, Simple
 AirFlow Model, Simple
! <RoomAir Model>, Zone Name, Mixing/Mundt/UCSDDV/UCSDCV/UCSDUFI/UCSDUFE/User Defined
RoomAir Model,ZONE ONE,Mixing/Well-Stirred
! <AirflowNetwork Model:Control>, No Multizone or Distribution/Multizone with Distribution/Multizone without Distribution/Multizone with Distribution only during Fan Operation
AirflowNetwork Model:Control,NoMultizoneOrDistribution
! <Zone Volume Capacitance Multiplier>, Sensible Heat Capacity Multiplier, Moisture Capacity Multiplier, Carbon Dioxide Capacity Multiplier, Generic Contaminant Capacity Multiplier
Zone Volume Capacitance Multiplier,   1.000 ,   1.000,   1.000,   1.000
! <Component Sizing Information>, Component Type, Component Name, Input Field Description, Value
 Component Sizing Information, Fan:OnOff, ERV_1_FANSUPPLY, Design Size Maximum Flow Rate [m3/s], 4.00000E-002
 Component Sizing Information, Fan:OnOff, ERV_1_FANSUPPLY, User-Specified Maximum Flow Rate [m3/s], 1.00000
 Component Sizing Information, Fan:OnOff, ERV_1_FANEXHAUST, Design Size Maximum Flow Rate [m3/s], 4.00000E-002
 Component Sizing Information, Fan:OnOff, ERV_1_FANEXHAUST, User-Specified Maximum Flow Rate [m3/s], 1.00000
 Component Sizing Information, HeatExchanger:AirToAir:SensibleAndLatent, ERV_1_HX, Design Size Nominal Supply Air Flow Rate [m3/s], 4.00000E-002
 Component Sizing Information, HeatExchanger:AirToAir:SensibleAndLatent, ERV_1_HX, User-Specified Nominal Supply Air Flow Rate [m3/s], 4.00000E-002
 Component Sizing Information, ZoneHVAC:Baseboard:RadiantConvective:Water, RADIATOR, U-Factor times Area [W/C], 143.11800
 Component Sizing Information, PlantLoop, MAIN LOOP, Plant Loop Volume [m3], 0.60000
 Component Sizing Information, DistrictHeating, DISTRICT HEATING 1, User-Specified Nominal Capacity [W], 2000.00000
! <Zone Surfaces>,Zone Name,# Surfaces
! <Shading Surfaces>,Number of Shading Surfaces,# Surfaces
! <HeatTransfer Surface>,Surface Name,Surface Class,Base Surface,Heat Transfer Algorithm,Construction,Nominal U (w/o film coefs) {W/m2-K},Nominal U (with film coefs) {W/m2-K},Solar Diffusing,Area (Net) {m2},Area (Gross) {m2},Area (Sunlit Calc) {m2},Azimuth {deg},Tilt {deg},~Width {m},~Height {m},Reveal {m},ExtBoundCondition,ExtConvCoeffCalc,IntConvCoeffCalc,SunExposure,WindExposure,ViewFactorToGround,ViewFactorToSky,ViewFactorToGround-IR,ViewFactorToSky-IR,#Sides
! <Shading Surface>,Surface Name,Surface Class,Base Surface,Heat Transfer Algorithm,Transmittance Schedule,Min Schedule Value,Max Schedule Value,Solar Diffusing,Area (Net) {m2},Area (Gross) {m2},Area (Sunlit Calc) {m2},Azimuth {deg},Tilt {deg},~Width {m},~Height {m},Reveal {m},ExtBoundCondition,ExtConvCoeffCalc,IntConvCoeffCalc,SunExposure,WindExposure,ViewFactorToGround,ViewFactorToSky,ViewFactorToGround-IR,ViewFactorToSky-IR,#Sides
! <Frame/Divider Surface>,Surface Name,Surface Class,Base Surface,Heat Transfer Algorithm,Construction,Nominal U (w/o film coefs) {W/m2-K},Nominal U (with film coefs) {W/m2-K},Solar Diffusing,Area (Net) {m2},Area (Gross) {m2},Area (Sunlit Calc) {m2},Azimuth {deg},Tilt {deg},~Width {m},~Height {m},Reveal {m}
Zone Surfaces,ZONE ONE,9
HeatTransfer Surface,ZONE SURFACE NORTH,Wall,,CTF - ConductionTransferFunction,SKG YTTERVAGG,0.111,0.109,,15.60,21.60,15.60,0.00,90.00,8.00,2.70,0.00,ExternalEnvironment,ASHRAETARP,ASHRAETARP,SunExposed,WindExposed,0.50,0.50,0.50,0.50,4
HeatTransfer Surface,NORTH WINDOW,Window,ZONE SURFACE NORTH,Window5 Detailed Fenestration,DOUBLE PANE WINDOW,N/A,3.610,No,6.00,6.00,6.00,0.00,90.00,3.00,2.00,0.00,ExternalEnvironment,ASHRAETARP,ASHRAETARP,SunExposed,WindExposed,0.50,0.50,0.50,0.50,4
HeatTransfer Surface,ZONE SURFACE EAST,Wall,,CTF - ConductionTransferFunction,SKG YTTERVAGG,0.111,0.109,,10.20,16.20,10.20,90.00,90.00,6.00,2.70,0.00,ExternalEnvironment,ASHRAETARP,ASHRAETARP,SunExposed,WindExposed,0.50,0.50,0.50,0.50,4
HeatTransfer Surface,EAST WINDOW,Window,ZONE SURFACE EAST,Window5 Detailed Fenestration,DOUBLE PANE WINDOW,N/A,3.610,No,6.00,6.00,6.00,90.00,90.00,3.00,2.00,0.00,ExternalEnvironment,ASHRAETARP,ASHRAETARP,SunExposed,WindExposed,0.50,0.50,0.50,0.50,4
HeatTransfer Surface,ZONE SURFACE SOUTH,Wall,,CTF - ConductionTransferFunction,SKG INTRA APT WALLS,8.500,3.741,,21.60,21.60,21.60,180.00,90.00,8.00,2.70,0.00,ZONE SURFACE SOUTH,Other/Same Surface Int Conv,ASHRAETARP,NoSun,NoWind,0.50,0.50,0.50,0.50,4
HeatTransfer Surface,ZONE SURFACE WEST,Wall,,CTF - ConductionTransferFunction,SKG INTRA APT WALLS,8.500,3.741,,16.20,16.20,16.20,270.00,90.00,6.00,2.70,0.00,ZONE SURFACE WEST,Other/Same Surface Int Conv,ASHRAETARP,NoSun,NoWind,0.50,0.50,0.50,0.50,4
HeatTransfer Surface,ZONE SURFACE FLOOR,Floor,,CTF - ConductionTransferFunction,SKG GOLV,6.800,2.564,,48.00,48.00,48.00,180.00,180.00,8.00,6.00,0.00,Ground,N/A-Ground,ASHRAETARP,NoSun,NoWind,0.00,0.00,1.00,0.00,4
HeatTransfer Surface,ZONE SURFACE ROOF,Roof,,CTF - ConductionTransferFunction,SKG TAK,9.855E-002,9.675E-002,,48.00,48.00,48.00,180.00,0.00,8.00,6.00,0.00,ExternalEnvironment,ASHRAETARP,ASHRAETARP,SunExposed,WindExposed,0.00,1.00,0.00,1.00,4
HeatTransfer Surface,INDOOR WALLS,Internal Mass,,CTF - ConductionTransferFunction,SKG INTRA ROOMS WALLS,0.397,0.397,,32.00,32.00,32.00,0.00,90.00,32.00,1.00,0.00,INDOOR WALLS,Other/Same Surface Int Conv,ASHRAETARP,NoSun,NoWind,0.00,0.50,1.00,0.00,0
! <Environment>,Environment Name,Environment Type, Start Date, End Date, Start DayOfWeek, Duration {#days}, Source:Start DayOfWeek,  Use Daylight Saving, Use Holidays, Apply Weekend Holiday Rule,  Use Rain Values, Use Snow Values
! <Environment:Special Days>, Special Day Name, Special Day Type, Source, Start Date, Duration {#days}
! <Environment:Daylight Saving>, Daylight Saving Indicator, Source, Start Date, End Date
! <Environment:WarmupDays>, NumberofWarmupDays
Environment,ANNUAL SIM 1,WeatherFileRunPeriod,01/01,01/31,Sunday,31,UseWeatherFile,Yes,Yes,No,Yes,Yes
Environment:Daylight Saving,No,
Environment:WarmupDays,  9
! <Warmup Convergence Information>,Zone Name,Environment Type/Name,Average Warmup Temperature Difference {deltaC},Std Dev Warmup Temperature Difference {deltaC},Max Temperature Pass/Fail Convergence,Min Temperature Pass/Fail Convergence,Average Warmup Load Difference {W},Std Dev Warmup Load Difference {W},Heating Load Pass/Fail Convergence,Cooling Load Pass/Fail Convergence
 Warmup Convergence Information,ZONE ONE,RunPeriod: ANNUAL SIM 1,0.6326878400,0.8323410450,Pass,Pass,0.1915747577,0.3838638046,Pass,Pass
! <Program Control Information:Threads/Parallel Sims>, Threading Supported,Maximum Number of Threads, Env Set Threads (OMP_NUM_THREADS), EP Env Set Threads (EP_OMP_NUM_THREADS), IDF Set Threads, Number of Threads Used (Interior Radiant Exchange), Number Nominal Surfaces, Number Parallel Sims
Program Control:Threads/Parallel Sims, No,1, N/A, N/A, N/A, N/A, N/A, N/A
End of Data
