Program Version,EnergyPlus, Version 8.9.0-40101eaafd, YMD=2019.01.10 16:53
! This file shows details about the branches, nodes, and other
! elements of the flow connections.
! This file is intended for use in "debugging" potential problems
! that may also be detected by the program, but may be more easily
! identified by "eye".
! This file is also intended to support software which draws a
! schematic diagram of the HVAC system.
! ===============================================================
! #Nodes,<Number of Unique Nodes>
 #Nodes,20
! <Node>,<NodeNumber>,<Node Name>,<Node Fluid Type>,<# Times Node Referenced After Definition>
 Node,1,SUPPLY OUTLET PIPE OUTLET NODE,Water,5
 Node,2,PUMP INLET NODE,Water,2
 Node,3,PUMP OUTLET NODE,Water,1
 Node,4,DH INLET NODE,Water,1
 Node,5,DH OUTLET NODE,Water,1
 Node,6,SUPPLY OUTLET PIPE INLET NODE,Water,1
 Node,7,DEMAND INLET PIPE INLET NODE,Water,2
 Node,8,DEMAND INLET PIPE OUTLET NODE,Water,1
 Node,9,RADIATOR INLET NODE,Water,1
 Node,10,RADIATOR OUTLET NODE,Water,1
 Node,11,DEMAND OUTLET PIPE INLET NODE,Water,1
 Node,12,DEMAND OUTLET PIPE OUTLET NODE,Water,2
 Node,13,ZONE ONE ZONE AIR NODE,Air,0
 Node,14,ZONE ONESUPPLY AIR INLET,Air,2
 Node,15,ZONE ONE EXHAUST AIR OUTLET,Air,2
 Node,16,ZONE ONE RETURN OUTLET,Air,0
 Node,17,ERV SUPPLY AIR INLET,Air,2
 Node,18,ERV EXHAUST FROM FAN,Air,2
 Node,19,ERV SUPPLY TO FAN,Air,1
 Node,20,ERV EXHAUST AIR OUTLET,Air,1
! ===============================================================
! Suspicious nodes have 0 references.  It is normal for some nodes, however.
! Listing nodes with 0 references (culled from previous list):
! <Suspicious Node>,<NodeNumber>,<Node Name>,<Node Fluid Type>,<# Times Node Referenced After Definition>
 Suspicious Node,13,ZONE ONE ZONE AIR NODE,Air,0
 Suspicious Node,16,ZONE ONE RETURN OUTLET,Air,0
! ===============================================================
! <#Branch Lists>,<Number of Branch Lists>
 #Branch Lists,2
! <Branch List>,<Branch List Count>,<Branch List Name>,<Loop Name>,<Loop Type>,<Number of Branches>
! <Branch>,<Branch Count>,<Branch Name>,<Loop Name>,<Loop Type>,<Branch Inlet Node Name>,<Branch Outlet Node Name>
 Branch List,1,SUPPLY BRANCHES,MAIN LOOP,Plant Supply,3
   Branch,1,PUMP BRANCH,MAIN LOOP,Plant Supply,PUMP INLET NODE,PUMP OUTLET NODE
   Branch,2,DH BRANCH,MAIN LOOP,Plant Supply,DH INLET NODE,DH OUTLET NODE
   Branch,3,SUPPLY OUTLET PIPE BRANCH,MAIN LOOP,Plant Supply,SUPPLY OUTLET PIPE INLET NODE,SUPPLY OUTLET PIPE OUTLET NODE
 Branch List,2,DEMAND BRANCHES,MAIN LOOP,Plant Demand,3
   Branch,1,DEMAND INLET PIPE BRANCH,MAIN LOOP,Plant Demand,DEMAND INLET PIPE INLET NODE,DEMAND INLET PIPE OUTLET NODE
   Branch,2,RADIATOR BRANCH,MAIN LOOP,Plant Demand,RADIATOR INLET NODE,RADIATOR OUTLET NODE
   Branch,3,DEMAND OUTLET PIPE BRANCH,MAIN LOOP,Plant Demand,DEMAND OUTLET PIPE INLET NODE,DEMAND OUTLET PIPE OUTLET NODE
! ===============================================================
! <#Supply Air Paths>,<Number of Supply Air Paths>
 #Supply Air Paths,0
! <Supply Air Path>,<Supply Air Path Count>,<Supply Air Path Name>,<AirLoopHVAC Name>
! <#Components on Supply Air Path>,<Number of Components>
! <Supply Air Path Component>,<Component Count>,<Component Type>,<Component Name>,<AirLoopHVAC Name>
! <#Outlet Nodes on Supply Air Path Component>,<Number of Nodes>
! <Supply Air Path Component Nodes>,<Node Count>,<Component Type>,<Component Name>,<Inlet Node Name>,<Outlet Node Name>,<AirLoopHVAC Name>
! ===============================================================
! <#Return Air Paths>,<Number of Return Air Paths>
 #Return Air Paths,0
! <Return Air Path>,<Return Air Path Count>,<Return Air Path Name>,<AirLoopHVAC Name>
! <#Components on Return Air Path>,<Number of Components>
! <Return Air Path Component>,<Component Count>,<Component Type>,<Component Name>,<AirLoopHVAC Name>
! <#Inlet Nodes on Return Air Path Component>,<Number of Nodes>
! <Return Air Path Component Nodes>,<Node Count>,<Component Type>,<Component Name>,<Inlet Node Name>,<Outlet Node Name>,<AirLoopHVAC Name>
! ===============================================================
! #Outdoor Air Nodes,<Number of Outdoor Air Nodes>
 #Outdoor Air Nodes,2
! <Outdoor Air Node>,<NodeNumber>,<Node Name>
 Outdoor Air Node,17,ERV SUPPLY AIR INLET
 Outdoor Air Node,18,ERV EXHAUST FROM FAN
! ===============================================================
! <#Component Sets>,<Number of Component Sets>
 #Component Sets,9
! <Component Set>,<Component Set Count>,<Parent Object Type>,<Parent Object Name>,<Component Type>,<Component Name>,<Inlet Node ID>,<Outlet Node ID>,<Description>
 Component Set,1,BRANCH,PUMP BRANCH,PUMP:VARIABLESPEED,PUMP 1,PUMP INLET NODE,PUMP OUTLET NODE,Water Nodes
 Component Set,2,BRANCH,DH BRANCH,DISTRICTHEATING,DISTRICT HEATING 1,DH INLET NODE,DH OUTLET NODE,Hot Water Nodes
 Component Set,3,BRANCH,SUPPLY OUTLET PIPE BRANCH,PIPE:ADIABATIC,SUPPLY OUTLET PIPE,SUPPLY OUTLET PIPE INLET NODE,SUPPLY OUTLET PIPE OUTLET NODE,Pipe Nodes
 Component Set,4,BRANCH,DEMAND INLET PIPE BRANCH,PIPE:ADIABATIC,DEMAND INLET PIPE,DEMAND INLET PIPE INLET NODE,DEMAND INLET PIPE OUTLET NODE,Pipe Nodes
 Component Set,5,BRANCH,RADIATOR BRANCH,ZONEHVAC:BASEBOARD:RADIANTCONVECTIVE:WATER,RADIATOR,RADIATOR INLET NODE,RADIATOR OUTLET NODE,Hot Water Nodes
 Component Set,6,BRANCH,DEMAND OUTLET PIPE BRANCH,PIPE:ADIABATIC,DEMAND OUTLET PIPE,DEMAND OUTLET PIPE INLET NODE,DEMAND OUTLET PIPE OUTLET NODE,Pipe Nodes
 Component Set,7,ZONEHVAC:ENERGYRECOVERYVENTILATOR,ERV_1,HEATEXCHANGER:AIRTOAIR:SENSIBLEANDLATENT,ERV_1_HX,ERV SUPPLY AIR INLET,ERV SUPPLY TO FAN,Process Air Nodes
 Component Set,8,ZONEHVAC:ENERGYRECOVERYVENTILATOR,ERV_1,FAN:ONOFF,ERV_1_FANSUPPLY,ERV SUPPLY TO FAN,ZONE ONESUPPLY AIR INLET,Air Nodes
 Component Set,9,ZONEHVAC:ENERGYRECOVERYVENTILATOR,ERV_1,FAN:ONOFF,ERV_1_FANEXHAUST,ERV EXHAUST FROM FAN,ERV EXHAUST AIR OUTLET,Air Nodes
! ===============================================================
! <# Plant Loops>,<Number of Plant Loops>
 #Plant Loops,1
! <Plant Loop>,<Plant Loop Name>,<Loop Type>,<Inlet Node Name>,<Outlet Node Name>,<Branch List>,<Connector List>
! <Plant Loop Connector>,<Connector Type>,<Connector Name>,<Loop Name>,<Loop Type>,<Number of Inlets/Outlets>
! <Plant Loop Connector Branches>,<Connector Node Count>,<Connector Type>,<Connector Name>,<Inlet Branch>,<Outlet Branch>,<Loop Name>,<Loop Type>
! <Plant Loop Connector Nodes>,<Connector Node Count>,<Connector Type>,<Connector Name>,<Inlet Node>,<Outlet Node>,<Loop Name>,<Loop Type>
! <Plant Loop Supply Connection>,<Plant Loop Name>,<Supply Side Outlet Node Name>,<Demand Side Inlet Node Name>
! <Plant Loop Return Connection>,<Plant Loop Name>,<Demand Side Outlet Node Name>,<Supply Side Inlet Node Name>
 Plant Loop,MAIN LOOP,Demand,DEMAND INLET PIPE INLET NODE,DEMAND OUTLET PIPE OUTLET NODE,DEMAND BRANCHES,DEMAND CONNECTORS
   Plant Loop Connector,Splitter,DEMAND SPLITTER,MAIN LOOP,Demand,1
     Plant Loop Connector Branches,1,Splitter,DEMAND SPLITTER,DEMAND INLET PIPE BRANCH,RADIATOR BRANCH,MAIN LOOP,Demand
     Plant Loop Connector Nodes,   1,Splitter,DEMAND SPLITTER,DEMAND INLET PIPE OUTLET NODE,RADIATOR INLET NODE,MAIN LOOP,Demand
   Plant Loop Connector,Mixer,DEMAND MIXER,MAIN LOOP,Demand,1
     Plant Loop Connector Branches,1,Mixer,DEMAND MIXER,RADIATOR BRANCH,DEMAND OUTLET PIPE BRANCH,MAIN LOOP,Demand
     Plant Loop Connector Nodes,   1,Mixer,DEMAND MIXER,RADIATOR OUTLET NODE,DEMAND OUTLET PIPE INLET NODE,MAIN LOOP,Demand
 Plant Loop,MAIN LOOP,Supply,PUMP INLET NODE,SUPPLY OUTLET PIPE OUTLET NODE,SUPPLY BRANCHES,SUPPLY CONNECTORS
   Plant Loop Connector,Splitter,SUPPLY SPLITTER,MAIN LOOP,Supply,1
     Plant Loop Connector Branches,1,Splitter,SUPPLY SPLITTER,PUMP BRANCH,DH BRANCH,MAIN LOOP,Supply
     Plant Loop Connector Nodes,   1,Splitter,SUPPLY SPLITTER,PUMP OUTLET NODE,DH INLET NODE,MAIN LOOP,Supply
   Plant Loop Connector,Mixer,SUPPLY MIXER,MAIN LOOP,Supply,1
     Plant Loop Connector Branches,1,Mixer,SUPPLY MIXER,DH BRANCH,SUPPLY OUTLET PIPE BRANCH,MAIN LOOP,Supply
     Plant Loop Connector Nodes,   1,Mixer,SUPPLY MIXER,DH OUTLET NODE,SUPPLY OUTLET PIPE INLET NODE,MAIN LOOP,Supply
 Plant Loop Supply Connection,MAIN LOOP,SUPPLY OUTLET PIPE OUTLET NODE,DEMAND INLET PIPE INLET NODE
 Plant Loop Return Connection,MAIN LOOP,DEMAND OUTLET PIPE OUTLET NODE,PUMP INLET NODE
! ===============================================================
! <# Condenser Loops>,<Number of Condenser Loops>
 #Condenser Loops,0
! <Condenser Loop>,<Condenser Loop Name>,<Loop Type>,<Inlet Node Name>,<Outlet Node Name>,<Branch List>,<Connector List>
! <Condenser Loop Connector>,<Connector Type>,<Connector Name>,<Loop Name>,<Loop Type>,<Number of Inlets/Outlets>
! <Condenser Loop Connector Branches>,<Connector Node Count>,<Connector Type>,<Connector Name>,<Inlet Branch>,<Outlet Branch>,<Loop Name>,<Loop Type>
! <Condenser Loop Connector Nodes>,<Connector Node Count>,<Connector Type>,<Connector Name>,<Inlet Node>,<Outlet Node>,<Loop Name>,<Loop Type>
! <Condenser Loop Supply Connection>,<Condenser Loop Name>,<Supply Side Outlet Node Name>,<Demand Side Inlet Node Name>
! <Condenser Loop Return Connection>,<Condenser Loop Name>,<Demand Side Outlet Node Name>,<Supply Side Inlet Node Name>
! ===============================================================
! <# Controlled Zones>,<Number of Controlled Zones>
 #Controlled Zones,1
! <Controlled Zone>,<Controlled Zone Name>,<Equip List Name>,<Control List Name>,<Zone Node Name>,<# Inlet Nodes>,<# Exhaust Nodes>,<# Return Nodes>
! <Controlled Zone Inlet>,<Inlet Node Count>,<Controlled Zone Name>,<Supply Air Inlet Node Name>,<SD Sys:Cooling/Heating [DD:Cooling] Inlet Node Name>,<DD Sys:Heating Inlet Node Name>
! <Controlled Zone Exhaust>,<Exhaust Node Count>,<Controlled Zone Name>,<Exhaust Air Node Name>
 Controlled Zone,ZONE ONE,ZONE ONE EQUIPMENT,,ZONE ONE ZONE AIR NODE,1,1,1
   Controlled Zone Inlet,1,ZONE ONE,ZONE ONESUPPLY AIR INLET,Undefined,N/A
   Controlled Zone Exhaust,1,ZONE ONE,ZONE ONE EXHAUST AIR OUTLET
   Controlled Zone Return,1,ZONE ONE,ZONE ONE RETURN OUTLET
! ===============================================================
! <#Zone Equipment Lists>,<Number of Zone Equipment Lists>
 #Zone Equipment Lists,1
! <Zone Equipment List>,<Zone Equipment List Count>,<Zone Equipment List Name>,<Zone Name>,<Number of Components>
! <Zone Equipment Component>,<Component Count>,<Component Type>,<Component Name>,<Zone Name>,<Heating Priority>,<Cooling Priority>
 Zone Equipment List,1,ZONE ONE EQUIPMENT,ZONE ONE,2
   Zone Equipment Component,1,ZONEHVAC:ENERGYRECOVERYVENTILATOR,ERV_1,ZONE ONE,1,1
   Zone Equipment Component,2,ZONEHVAC:BASEBOARD:RADIANTCONVECTIVE:WATER,RADIATOR,ZONE ONE,2,2
! ===============================================================
! <#AirLoopHVACs>,<Number of AirLoopHVACs>
 #AirLoopHVACs,0
! <AirLoopHVAC>,<Air Loop Name>,<# Return Nodes>,<# Supply Nodes>,<# Zones Cooled>,<# Zones Heated>,<Outdoor Air Used>
! <AirLoop Return Connections>,<Connection Count>,<AirLoopHVAC Name>,<Zn Eqp Return Node #>,<Zn Eqp Return Node Name>,<AirLoop Return Node #>,<Air Loop Return Node Name>
! <AirLoop Supply Connections>,<Connection Count>,<AirLoopHVAC Name>,<Zn Eqp Supply Node #>,<Zn Eqp Supply Node Name>,<AirLoop Supply Node #>,<Air Loop Supply Node Name>
! <Cooled Zone Info>,<Cooled Zone Count>,<Cooled Zone Name>,<Cooled Zone Inlet Node #>,<Cooled Zone Inlet Node Name>,<AirLoopHVAC Name>
! <Heated Zone Info>,<Heated Zone Count>,<Heated Zone Name>,<Heated Zone Inlet Node #>,<Heated Zone Inlet Node Name>,<AirLoopHVAC Name>
! <Outdoor Air Connections>,<OA Inlet Node #>,<OA Return Air Inlet Node Name>,<OA Outlet Node #>,<OA Mixed Air Outlet Node Name>,<AirLoopHVAC Name>
! <AirLoopHVAC Connector>,<Connector Type>,<Connector Name>,<Loop Name>,<Loop Type>,<Number of Inlets/Outlets>
! <AirLoopHVAC Connector Branches>,<Connector Node Count>,<Connector Type>,<Connector Name>,<Inlet Branch>,<Outlet Branch>,<Loop Name>,<Loop Type>
! <AirLoopHVAC Connector Nodes>,<Connector Node Count>,<Connector Type>,<Connector Name>,<Inlet Node>,<Outlet Node>,<Loop Name>,<Loop Type>
! ===============================================================
! <#Parent Node Connections>,<Number of Parent Node Connections>
 #Parent Node Connections,21
! <Parent Node Connection>,<Node Name>,<Node ObjectType>,<Node ObjectName>,<Node ConnectionType>,<Node FluidStream>
 Parent Node Connection,PUMP INLET NODE,BRANCH,PUMP BRANCH,Inlet,1
 Parent Node Connection,PUMP OUTLET NODE,BRANCH,PUMP BRANCH,Outlet,1
 Parent Node Connection,DH INLET NODE,BRANCH,DH BRANCH,Inlet,1
 Parent Node Connection,DH OUTLET NODE,BRANCH,DH BRANCH,Outlet,1
 Parent Node Connection,SUPPLY OUTLET PIPE INLET NODE,BRANCH,SUPPLY OUTLET PIPE BRANCH,Inlet,1
 Parent Node Connection,SUPPLY OUTLET PIPE OUTLET NODE,BRANCH,SUPPLY OUTLET PIPE BRANCH,Outlet,1
 Parent Node Connection,DEMAND INLET PIPE INLET NODE,BRANCH,DEMAND INLET PIPE BRANCH,Inlet,1
 Parent Node Connection,DEMAND INLET PIPE OUTLET NODE,BRANCH,DEMAND INLET PIPE BRANCH,Outlet,1
 Parent Node Connection,RADIATOR INLET NODE,BRANCH,RADIATOR BRANCH,Inlet,1
 Parent Node Connection,RADIATOR OUTLET NODE,BRANCH,RADIATOR BRANCH,Outlet,1
 Parent Node Connection,DEMAND OUTLET PIPE INLET NODE,BRANCH,DEMAND OUTLET PIPE BRANCH,Inlet,1
 Parent Node Connection,DEMAND OUTLET PIPE OUTLET NODE,BRANCH,DEMAND OUTLET PIPE BRANCH,Outlet,1
 Parent Node Connection,PUMP INLET NODE,PLANTLOOP,MAIN LOOP,Inlet,1
 Parent Node Connection,SUPPLY OUTLET PIPE OUTLET NODE,PLANTLOOP,MAIN LOOP,Outlet,1
 Parent Node Connection,DEMAND INLET PIPE INLET NODE,PLANTLOOP,MAIN LOOP,Inlet,1
 Parent Node Connection,DEMAND OUTLET PIPE OUTLET NODE,PLANTLOOP,MAIN LOOP,Outlet,1
 Parent Node Connection,SUPPLY OUTLET PIPE OUTLET NODE,PLANTLOOP,MAIN LOOP,Sensor,1
 Parent Node Connection,ERV SUPPLY AIR INLET,ZONEHVAC:ENERGYRECOVERYVENTILATOR,ERV_1,Inlet,1
 Parent Node Connection,ZONE ONESUPPLY AIR INLET,ZONEHVAC:ENERGYRECOVERYVENTILATOR,ERV_1,Outlet,1
 Parent Node Connection,ZONE ONE EXHAUST AIR OUTLET,ZONEHVAC:ENERGYRECOVERYVENTILATOR,ERV_1,Inlet,2
 Parent Node Connection,ERV EXHAUST AIR OUTLET,ZONEHVAC:ENERGYRECOVERYVENTILATOR,ERV_1,ReliefAir,2
! ===============================================================
! <#Non-Parent Node Connections>,<Number of Non-Parent Node Connections>
 #Non-Parent Node Connections,35
! <Non-Parent Node Connection>,<Node Name>,<Node ObjectType>,<Node ObjectName>,<Node ConnectionType>,<Node FluidStream>
 Non-Parent Node Connection,ZONE ONE ZONE AIR NODE,ZONEHVAC:EQUIPMENTCONNECTIONS,ZONE ONE,ZoneNode,1
 Non-Parent Node Connection,ZONE ONESUPPLY AIR INLET,ZONEHVAC:EQUIPMENTCONNECTIONS,ZONE ONE,ZoneInlet,1
 Non-Parent Node Connection,ZONE ONE EXHAUST AIR OUTLET,ZONEHVAC:EQUIPMENTCONNECTIONS,ZONE ONE,ZoneExhaust,1
 Non-Parent Node Connection,ZONE ONE RETURN OUTLET,ZONEHVAC:EQUIPMENTCONNECTIONS,ZONE ONE,ZoneReturn,1
 Non-Parent Node Connection,ERV SUPPLY AIR INLET,OUTDOORAIR:NODELIST,OutdoorAir:NodeList,OutdoorAir,1
 Non-Parent Node Connection,ERV EXHAUST FROM FAN,OUTDOORAIR:NODELIST,OutdoorAir:NodeList,OutdoorAir,2
 Non-Parent Node Connection,SUPPLY OUTLET PIPE OUTLET NODE,SETPOINTMANAGER:SCHEDULED:DUALSETPOINT,DUALPLANT,Setpoint,1
 Non-Parent Node Connection,SUPPLY OUTLET PIPE INLET NODE,PIPE:ADIABATIC,SUPPLY OUTLET PIPE,Inlet,1
 Non-Parent Node Connection,SUPPLY OUTLET PIPE OUTLET NODE,PIPE:ADIABATIC,SUPPLY OUTLET PIPE,Outlet,1
 Non-Parent Node Connection,DEMAND INLET PIPE INLET NODE,PIPE:ADIABATIC,DEMAND INLET PIPE,Inlet,1
 Non-Parent Node Connection,DEMAND INLET PIPE OUTLET NODE,PIPE:ADIABATIC,DEMAND INLET PIPE,Outlet,1
 Non-Parent Node Connection,DEMAND OUTLET PIPE INLET NODE,PIPE:ADIABATIC,DEMAND OUTLET PIPE,Inlet,1
 Non-Parent Node Connection,DEMAND OUTLET PIPE OUTLET NODE,PIPE:ADIABATIC,DEMAND OUTLET PIPE,Outlet,1
 Non-Parent Node Connection,DEMAND INLET PIPE OUTLET NODE,CONNECTOR:SPLITTER,DEMAND SPLITTER,Inlet,1
 Non-Parent Node Connection,RADIATOR INLET NODE,CONNECTOR:SPLITTER,DEMAND SPLITTER,Outlet,1
 Non-Parent Node Connection,DEMAND OUTLET PIPE INLET NODE,CONNECTOR:MIXER,DEMAND MIXER,Outlet,1
 Non-Parent Node Connection,RADIATOR OUTLET NODE,CONNECTOR:MIXER,DEMAND MIXER,Inlet,1
 Non-Parent Node Connection,PUMP OUTLET NODE,CONNECTOR:SPLITTER,SUPPLY SPLITTER,Inlet,1
 Non-Parent Node Connection,DH INLET NODE,CONNECTOR:SPLITTER,SUPPLY SPLITTER,Outlet,1
 Non-Parent Node Connection,SUPPLY OUTLET PIPE INLET NODE,CONNECTOR:MIXER,SUPPLY MIXER,Outlet,1
 Non-Parent Node Connection,DH OUTLET NODE,CONNECTOR:MIXER,SUPPLY MIXER,Inlet,1
 Non-Parent Node Connection,ERV SUPPLY AIR INLET,HEATEXCHANGER:AIRTOAIR:SENSIBLEANDLATENT,ERV_1_HX,Inlet,1
 Non-Parent Node Connection,ERV SUPPLY TO FAN,HEATEXCHANGER:AIRTOAIR:SENSIBLEANDLATENT,ERV_1_HX,Outlet,1
 Non-Parent Node Connection,ZONE ONE EXHAUST AIR OUTLET,HEATEXCHANGER:AIRTOAIR:SENSIBLEANDLATENT,ERV_1_HX,Inlet,2
 Non-Parent Node Connection,ERV EXHAUST FROM FAN,HEATEXCHANGER:AIRTOAIR:SENSIBLEANDLATENT,ERV_1_HX,Outlet,2
 Non-Parent Node Connection,ERV SUPPLY TO FAN,FAN:ONOFF,ERV_1_FANSUPPLY,Inlet,1
 Non-Parent Node Connection,ZONE ONESUPPLY AIR INLET,FAN:ONOFF,ERV_1_FANSUPPLY,Outlet,1
 Non-Parent Node Connection,ERV EXHAUST FROM FAN,FAN:ONOFF,ERV_1_FANEXHAUST,Inlet,1
 Non-Parent Node Connection,ERV EXHAUST AIR OUTLET,FAN:ONOFF,ERV_1_FANEXHAUST,Outlet,1
 Non-Parent Node Connection,RADIATOR INLET NODE,ZONEHVAC:BASEBOARD:RADIANTCONVECTIVE:WATER,RADIATOR,Inlet,1
 Non-Parent Node Connection,RADIATOR OUTLET NODE,ZONEHVAC:BASEBOARD:RADIANTCONVECTIVE:WATER,RADIATOR,Outlet,1
 Non-Parent Node Connection,DH INLET NODE,DISTRICTHEATING,DISTRICT HEATING 1,Inlet,1
 Non-Parent Node Connection,DH OUTLET NODE,DISTRICTHEATING,DISTRICT HEATING 1,Outlet,1
 Non-Parent Node Connection,PUMP INLET NODE,PUMP:VARIABLESPEED,PUMP 1,Inlet,1
 Non-Parent Node Connection,PUMP OUTLET NODE,PUMP:VARIABLESPEED,PUMP 1,Outlet,1
